
  EPA STORM WATER MANAGEMENT MODEL - VERSION 5.1 (Build 5.1.010)
  --------------------------------------------------------------

  Data from Permeable Pavement Cell "A" in Boone, NC 
  Data entered on September 4, 2013 by E. Hirschmann 
  BMP ID 16, STRM 127 
  
  *************
  Element Count
  *************
  Number of rain gages ...... 1
  Number of subcatchments ... 1
  Number of nodes ........... 1
  Number of links ........... 0
  Number of pollutants ...... 0
  Number of land uses ....... 0
  
  
  ****************
  Raingage Summary
  ****************
                                                      Data       Recording
  Name                 Data Source                    Type       Interval 
  ------------------------------------------------------------------------
  04/27/11_Storm       storm127.dat                  
  
  
  ********************
  Subcatchment Summary
  ********************
  Name                       Area     Width   %Imperv    %Slope Rain Gage            Outlet              
  -----------------------------------------------------------------------------------------------------------
  parkinglot                 0.02     20.00    100.00    0.5000 04/27/11_Storm       1                   


  *******************
  LID Control Summary
  *******************
                                   No. of        Unit        Unit      % Area    % Imperv
  Subcatchment     LID Control      Units        Area       Width     Covered     Treated
  ---------------------------------------------------------------------------------------
  parkinglot       prPvmnt              1      687.00       20.00       99.82      100.00
  
  
  ************
  Node Summary
  ************
                                           Invert      Max.    Ponded    External
  Name                 Type                 Elev.     Depth      Area    Inflow  
  -------------------------------------------------------------------------------
  1                    OUTFALL               0.00      0.00       0.0
  
  
  
  *********************
  Rainfall File Summary
  *********************
  Station    First        Last         Recording   Periods    Periods    Periods
  ID         Date         Date         Frequency  w/Precip    Missing    Malfunc.
  -------------------------------------------------------------------------------
  strm127    APR-27-2011  APR-28-2011      1 min       331          0          0

  
  *********************************************************
  NOTE: The summary statistics displayed in this report are
  based on results found at every computational time step,  
  not just on results from each reporting time step.
  *********************************************************
  
  ****************
  Analysis Options
  ****************
  Flow Units ............... GPM
  Process Models:
    Rainfall/Runoff ........ YES
    RDII ................... NO
    Snowmelt ............... NO
    Groundwater ............ NO
    Flow Routing ........... NO
    Water Quality .......... NO
  Infiltration Method ...... GREEN_AMPT
  Starting Date ............ APR-27-2011 20:40:00
  Ending Date .............. APR-28-2011 16:00:00
  Antecedent Dry Days ...... 0.0
  Report Time Step ......... 00:02:00
  Wet Time Step ............ 00:00:15
  Dry Time Step ............ 00:02:00
  
  
  *********************
  Control Actions Taken
  *********************

  
  **************************        Volume         Depth
  Runoff Quantity Continuity     acre-feet        inches
  **************************     ---------       -------
  Initial LID Storage ......         0.000         0.320
  Total Precipitation ......         0.002         1.273
  Evaporation Loss .........         0.000         0.000
  Infiltration Loss ........         0.002         1.349
  Surface Runoff ...........         0.000         0.000
  LID Drainage .............         0.000         0.021
  Final Storage ............         0.000         0.223
  Continuity Error (%) .....         0.000
  
  
  **************************        Volume        Volume
  Flow Routing Continuity        acre-feet      10^6 gal
  **************************     ---------     ---------
  Dry Weather Inflow .......         0.000         0.000
  Wet Weather Inflow .......         0.000         0.000
  Groundwater Inflow .......         0.000         0.000
  RDII Inflow ..............         0.000         0.000
  External Inflow ..........         0.000         0.000
  External Outflow .........         0.000         0.000
  Flooding Loss ............         0.000         0.000
  Evaporation Loss .........         0.000         0.000
  Exfiltration Loss ........         0.000         0.000
  Initial Stored Volume ....         0.000         0.000
  Final Stored Volume ......         0.000         0.000
  Continuity Error (%) .....         0.000
  
  
  ***************************
  Subcatchment Runoff Summary
  ***************************
  
  --------------------------------------------------------------------------------------------------------
                            Total      Total      Total      Total      Total       Total     Peak  Runoff
                           Precip      Runon       Evap      Infil     Runoff      Runoff   Runoff   Coeff
  Subcatchment                 in         in         in         in         in    10^6 gal      GPM
  --------------------------------------------------------------------------------------------------------
  parkinglot                 1.27       0.00       0.00       1.35       0.02        0.00     0.35   0.017
  

  ***********************
  LID Performance Summary
  ***********************

  --------------------------------------------------------------------------------------------------------------------
                                         Total      Evap     Infil   Surface    Drain    Initial     Final  Continuity
                                        Inflow      Loss      Loss   Outflow   Outflow   Storage   Storage       Error
  Subcatchment      LID Control             in        in        in        in        in        in        in           %
  --------------------------------------------------------------------------------------------------------------------
  parkinglot        prPvmnt               1.28      0.00      1.35      0.00      0.02      0.32      0.22       -0.02

  Analysis begun on:  Tue Aug 23 16:05:30 2016
  Analysis ended on:  Tue Aug 23 16:05:30 2016
  Total elapsed time: < 1 sec