
  EPA STORM WATER MANAGEMENT MODEL - VERSION 5.1 (Build 5.1.010)
  --------------------------------------------------------------

  
  ERROR 211: invalid number 114.477 at line 76 of [LID_USAGE] section:
  LID              BTI              1       1501.51    1.12000          114.477         0          0          ".\LIDReport.txt"


  Analysis begun on:  Tue Aug 23 15:35:23 2016
  Analysis ended on:  Tue Aug 23 15:35:23 2016
  Total elapsed time: < 1 sec